4
Coordinates from ORCA-job actividad2_Q2002B E -56.176695996437
  N      -6.438208      2.342357      0.038098
  H      -5.420880      2.347933     -0.019989
  H      -6.749806      1.582732     -0.565422
  H      -6.749809      3.202887     -0.409956
4
Coordinates from ORCA-job actividad2_Q2002B E -56.179415010557
  N      -6.426428      2.345660      0.003670
  H      -5.424471      2.346832     -0.008520
  H      -6.753901      1.580315     -0.554069
  H      -6.753904      3.203101     -0.398351
4
Coordinates from ORCA-job actividad2_Q2002B E -56.180864723706
  N      -6.410648      2.350067     -0.042246
  H      -5.418577      2.345001      0.010560
  H      -6.764738      1.567901     -0.541718
  H      -6.764741      3.212940     -0.383865
4
Coordinates from ORCA-job actividad2_Q2002B E -56.181056655442
  N      -6.403653      2.351859     -0.060929
  H      -5.414158      2.344171      0.019214
  H      -6.770445      1.562012     -0.537223
  H      -6.770448      3.217866     -0.378331
4
Coordinates from ORCA-job actividad2_Q2002B E -56.181083567436
  N      -6.400041      2.352725     -0.069950
  H      -5.412526      2.343780      0.023284
  H      -6.773067      1.559935     -0.534924
  H      -6.773070      3.219469     -0.375679
4
Coordinates from ORCA-job actividad2_Q2002B E -56.181084777991
  N      -6.399123      2.352929     -0.072077
  H      -5.412039      2.343683      0.024299
  H      -6.773769      1.559481     -0.534406
  H      -6.773772      3.219815     -0.375085
4
Coordinates from ORCA-job actividad2_Q2002B E -56.181084793192
  N      -6.399007      2.352948     -0.072276
  H      -5.411982      2.343673      0.024406
  H      -6.773856      1.559470     -0.534361
  H      -6.773859      3.219818     -0.375038
