4
Coordinates from ORCA-job actividad2_Q2002B E -56.160031609223
  N      -6.438208      2.342357      0.038098
  H      -5.420880      2.347933     -0.019989
  H      -6.749806      1.582732     -0.565422
  H      -6.749809      3.202887     -0.409956
4
Coordinates from ORCA-job actividad2_Q2002B E -56.163200443704
  N      -6.425194      2.346024     -0.000121
  H      -5.421533      2.346601     -0.006109
  H      -6.755987      1.576933     -0.553697
  H      -6.755989      3.206350     -0.397343
4
Coordinates from ORCA-job actividad2_Q2002B E -56.165150064158
  N      -6.406605      2.351235     -0.054426
  H      -5.414660      2.344441      0.016393
  H      -6.768718      1.562250     -0.539058
  H      -6.768721      3.217982     -0.380178
4
Coordinates from ORCA-job actividad2_Q2002B E -56.165451925649
  N      -6.397481      2.353581     -0.078876
  H      -5.410285      2.343405      0.027199
  H      -6.775467      1.555712     -0.532801
  H      -6.775470      3.223211     -0.372792
4
Coordinates from ORCA-job actividad2_Q2002B E -56.165515024903
  N      -6.391731      2.354991     -0.093564
  H      -5.408280      2.342796      0.033546
  H      -6.779345      1.552730     -0.528878
  H      -6.779348      3.225392     -0.368374
4
Coordinates from ORCA-job actividad2_Q2002B E -56.165521120859
  N      -6.389553      2.355513     -0.099002
  H      -5.407424      2.342565      0.035949
  H      -6.780861      1.551629     -0.527452
  H      -6.780864      3.226201     -0.366764
4
Coordinates from ORCA-job actividad2_Q2002B E -56.165521328210
  N      -6.389078      2.355624     -0.100165
  H      -5.407287      2.342517      0.036448
  H      -6.781167      1.551440     -0.527135
  H      -6.781170      3.226327     -0.366418
