4
Coordinates from ORCA-job .\FeOOH_input_ad_comp E -1410.908431670578
  Fe     -1.671960      2.457770     -0.000000
  O      -3.066310      1.598560     -0.000001
  O      -0.110402      3.419370      0.000000
  H       0.603334      2.732930      0.000000
4
Coordinates from ORCA-job .\FeOOH_input_ad_comp E -1410.912119205263
  Fe     -1.673123      2.463590      0.000000
  O      -3.051860      1.604906     -0.000001
  O      -0.122715      3.402546     -0.000000
  H       0.602360      2.737587     -0.000000
4
Coordinates from ORCA-job .\FeOOH_input_ad_comp E -1410.923444068042
  Fe     -1.683703      2.496635      0.000000
  O      -2.979112      1.634537     -0.000001
  O      -0.190337      3.321173     -0.000000
  H       0.607814      2.756285     -0.000000
4
Coordinates from ORCA-job .\FeOOH_input_ad_comp E -1410.924857347920
  Fe     -1.698872      2.508531     -0.000032
  O      -2.965042      1.640639      0.000015
  O      -0.206428      3.285824      0.000018
  H       0.625004      2.773636     -0.000002
4
Coordinates from ORCA-job .\FeOOH_input_ad_comp E -1410.927174473641
  Fe     -1.731375      2.525777     -0.000063
  O      -2.964697      1.639949      0.000031
  O      -0.213010      3.234760      0.000034
  H       0.663744      2.808144     -0.000004
4
Coordinates from ORCA-job .\FeOOH_input_ad_comp E -1410.931233827542
  Fe     -1.791865      2.562310     -0.000126
  O      -2.974902      1.630285      0.000064
  O      -0.207325      3.139111      0.000068
  H       0.728754      2.876925     -0.000007
4
Coordinates from ORCA-job .\FeOOH_input_ad_comp E -1410.933769862428
  Fe     -1.834054      2.612650     -0.000162
  O      -2.966020      1.620011      0.000086
  O      -0.205492      3.041342      0.000074
  H       0.760229      2.934627      0.000002
4
Coordinates from ORCA-job .\FeOOH_input_ad_comp E -1410.934897666588
  Fe     -1.833490      2.623266     -0.000170
  O      -2.968490      1.609804      0.000090
  O      -0.204469      3.048918      0.000079
  H       0.761112      2.926641      0.000000
4
Coordinates from ORCA-job .\FeOOH_input_ad_comp E -1410.936146729494
  Fe     -1.826779      2.649562     -0.000202
  O      -2.955594      1.593955      0.000104
  O      -0.211819      3.060102      0.000111
  H       0.748855      2.905010     -0.000014
4
Coordinates from ORCA-job .\FeOOH_input_ad_comp E -1410.936448042192
  Fe     -1.822821      2.665523     -0.000232
  O      -2.939056      1.587436      0.000116
  O      -0.220483      3.067469      0.000145
  H       0.737022      2.888201     -0.000030
4
Coordinates from ORCA-job .\FeOOH_input_ad_comp E -1410.936617432696
  Fe     -1.823109      2.679668     -0.000256
  O      -2.920956      1.582824      0.000125
  O      -0.227742      3.073243      0.000171
  H       0.726469      2.872895     -0.000041
4
Coordinates from ORCA-job .\FeOOH_input_ad_comp E -1410.936948555636
  Fe     -1.828085      2.709898     -0.000307
  O      -2.879203      1.572461      0.000145
  O      -0.240388      3.090180      0.000226
  H       0.702338      2.836091     -0.000065
4
Coordinates from ORCA-job .\FeOOH_input_ad_comp E -1410.937495613593
  Fe     -1.843066      2.768368     -0.000437
  O      -2.791876      1.553400      0.000194
  O      -0.258917      3.125694      0.000372
  H       0.648520      2.761168     -0.000130
4
Coordinates from ORCA-job .\FeOOH_input_ad_comp E -1410.938024322597
  Fe     -1.857003      2.807527     -0.000565
  O      -2.725095      1.540429      0.000239
  O      -0.264112      3.158434      0.000527
  H       0.600871      2.702241     -0.000202
4
Coordinates from ORCA-job .\FeOOH_input_ad_comp E -1410.938489309595
  Fe     -1.870464      2.826260     -0.000664
  O      -2.693245      1.531112      0.000273
  O      -0.256504      3.181432      0.000648
  H       0.574874      2.669826     -0.000258
4
Coordinates from ORCA-job .\FeOOH_input_ad_comp E -1410.938531283640
  Fe     -1.874011      2.829540     -0.000681
  O      -2.691949      1.528151      0.000280
  O      -0.253449      3.183984      0.000667
  H       0.574071      2.666954     -0.000267
4
Coordinates from ORCA-job .\FeOOH_input_ad_comp E -1410.938532574616
  Fe     -1.873822      2.829805     -0.000684
  O      -2.692082      1.527436      0.000281
  O      -0.252741      3.185361      0.000672
  H       0.573306      2.666028     -0.000269
