3
Coordinates from ORCA-job ./PH2P_PBE/input E -342.326833038663
  P      -1.396470      0.534622     -0.039248
  H       0.172561      0.512374     -0.082159
  H      -1.965046      1.208104      1.259728
3
Coordinates from ORCA-job ./PH2P_PBE/input E -342.343127854413
  P      -1.420354      0.519184     -0.069023
  H       0.064864      0.559057      0.007881
  H      -1.833467      1.176858      1.199463
3
Coordinates from ORCA-job ./PH2P_PBE/input E -342.347799613074
  P      -1.443995      0.503984     -0.098341
  H      -0.054334      0.609348      0.104879
  H      -1.690627      1.141768      1.131782
3
Coordinates from ORCA-job ./PH2P_PBE/input E -342.348347197736
  P      -1.447547      0.501620     -0.102900
  H      -0.029305      0.602944      0.092529
  H      -1.712104      1.150535      1.148692
3
Coordinates from ORCA-job ./PH2P_PBE/input E -342.348368024325
  P      -1.450315      0.499833     -0.106347
  H      -0.033059      0.605514      0.097485
  H      -1.705582      1.149752      1.147182
3
Coordinates from ORCA-job ./PH2P_PBE/input E -342.348368867703
  P      -1.451205      0.499258     -0.107455
  H      -0.034044      0.606268      0.098939
  H      -1.703708      1.149573      1.146836
3
Coordinates from ORCA-job ./PH2P_PBE/input E -342.348367448778
  P      -1.451207      0.499257     -0.107459
  H      -0.034028      0.606264      0.098932
  H      -1.703721      1.149579      1.146847
