2
Coordinates from ORCA-job inputAdvance_COMPLETE E -75.097500642934
  O       0.000000      0.000000      0.000000
  H       1.000000      0.000000      0.000000
2
Coordinates from ORCA-job inputAdvance_COMPLETE E -75.097574589926
  O       0.004762      0.000000      0.000000
  H       0.995238      0.000000      0.000000
2
Coordinates from ORCA-job inputAdvance_COMPLETE E -75.097574592354
  O       0.004790      0.000000      0.000000
  H       0.995210      0.000000      0.000000
