4
Coordinates from ORCA-job MnOOH_Solv_COMPLETE E -1298.260190215235
  Mn      2.123573      0.872756      0.000000
  O       0.500738      1.439585      0.000000
  O       3.943034      0.237503      0.000000
  H       3.861376     -0.749322      0.000000
4
Coordinates from ORCA-job MnOOH_Solv_COMPLETE E -1298.273495603798
  Mn      2.135349      0.874602     -0.000000
  O       0.542239      1.415765      0.000000
  O       3.910334      0.247676      0.000000
  H       3.840799     -0.737521      0.000000
4
Coordinates from ORCA-job MnOOH_Solv_COMPLETE E -1298.298622680056
  Mn      2.161055      0.882909     -0.000000
  O       0.656556      1.350945      0.000000
  O       3.823115      0.276843      0.000000
  H       3.787995     -0.710176     -0.000000
4
Coordinates from ORCA-job MnOOH_Solv_COMPLETE E -1298.300789690279
  Mn      2.173728      0.896962     -0.000000
  O       0.718297      1.315145      0.000000
  O       3.764545      0.287971      0.000000
  H       3.772151     -0.699555     -0.000000
4
Coordinates from ORCA-job MnOOH_Solv_COMPLETE E -1298.302264644435
  Mn      2.168448      0.904710     -0.000000
  O       0.692249      1.327564      0.000000
  O       3.775356      0.277460      0.000000
  H       3.792667     -0.709212     -0.000000
4
Coordinates from ORCA-job MnOOH_Solv_COMPLETE E -1298.303708250564
  Mn      2.166058      0.927196     -0.000000
  O       0.676652      1.331122      0.000000
  O       3.763529      0.262513      0.000000
  H       3.822482     -0.720310     -0.000000
4
Coordinates from ORCA-job MnOOH_Solv_COMPLETE E -1298.308059345377
  Mn      2.168146      1.013963     -0.000000
  O       0.641296      1.328046      0.000000
  O       3.700865      0.205390      0.000000
  H       3.918414     -0.746878     -0.000000
4
Coordinates from ORCA-job MnOOH_Solv_COMPLETE E -1298.309356090971
  Mn      2.179323      1.076335     -0.000000
  O       0.636524      1.315273      0.000000
  O       3.630378      0.159576      0.000000
  H       3.982496     -0.750662     -0.000000
4
Coordinates from ORCA-job MnOOH_Solv_COMPLETE E -1298.310242187093
  Mn      2.178333      1.059553     -0.000000
  O       0.647187      1.316932      0.000000
  O       3.630865      0.171075      0.000000
  H       3.972336     -0.747038     -0.000000
4
Coordinates from ORCA-job MnOOH_Solv_COMPLETE E -1298.310689596192
  Mn      2.179068      1.046104     -0.000001
  O       0.661421      1.319940      0.000000
  O       3.612326      0.172364      0.000000
  H       3.975907     -0.737886     -0.000000
4
Coordinates from ORCA-job MnOOH_Solv_COMPLETE E -1298.310747179950
  Mn      2.176606      1.042902     -0.000001
  O       0.659437      1.325118      0.000000
  O       3.610240      0.169517      0.000000
  H       3.982438     -0.737015     -0.000000
4
Coordinates from ORCA-job MnOOH_Solv_COMPLETE E -1298.311269625654
  Mn      2.138283      0.988716     -0.000002
  O       0.642075      1.401471      0.000001
  O       3.571556      0.124412      0.000002
  H       4.076808     -0.714077     -0.000001
4
Coordinates from ORCA-job MnOOH_Solv_COMPLETE E -1298.311450625588
  Mn      2.112575      0.952918     -0.000002
  O       0.639773      1.447139      0.000001
  O       3.544830      0.091938      0.000002
  H       4.131544     -0.691473     -0.000001
4
Coordinates from ORCA-job MnOOH_Solv_COMPLETE E -1298.311592265346
  Mn      2.082093      0.911771     -0.000002
  O       0.644547      1.495404      0.000001
  O       3.515818      0.053052      0.000002
  H       4.186262     -0.659706     -0.000001
4
Coordinates from ORCA-job MnOOH_Solv_COMPLETE E -1298.311665737202
  Mn      2.062106      0.886708     -0.000002
  O       0.651714      1.523563      0.000001
  O       3.497395      0.026356      0.000002
  H       4.217505     -0.636105     -0.000001
4
Coordinates from ORCA-job MnOOH_Solv_COMPLETE E -1298.311700517080
  Mn      2.041347      0.858802     -0.000001
  O       0.662163      1.552462      0.000001
  O       3.478251     -0.003048      0.000001
  H       4.246959     -0.607694     -0.000000
4
Coordinates from ORCA-job MnOOH_Solv_COMPLETE E -1298.311734959628
  Mn      2.010716      0.812444     -0.000000
  O       0.683844      1.595489      0.000000
  O       3.449297     -0.050034      0.000000
  H       4.284865     -0.557377     -0.000000
4
Coordinates from ORCA-job MnOOH_Solv_COMPLETE E -1298.310727137128
  Mn      1.931900      0.688269      0.000002
  O       0.758805      1.707806     -0.000003
  O       3.391490     -0.144252      0.000005
  H       4.346527     -0.451301     -0.000004
4
Coordinates from ORCA-job MnOOH_Solv_COMPLETE E -1298.312494227737
  Mn      1.963992      0.732168      0.000001
  O       0.729786      1.663631     -0.000001
  O       3.422002     -0.101104      0.000000
  H       4.312942     -0.494173     -0.000001
4
Coordinates from ORCA-job MnOOH_Solv_COMPLETE E -1298.316843194861
  Mn      1.881598      0.591805      0.000002
  O       0.857737      1.747767      0.000006
  O       3.377313     -0.174260     -0.000023
  H       4.312073     -0.364791      0.000015
4
Coordinates from ORCA-job MnOOH_Solv_COMPLETE E -1298.316489496458
  Mn      1.883482      0.581522     -0.013607
  O       0.870983      1.746121      0.050097
  O       3.382037     -0.171585     -0.123078
  H       4.292220     -0.355537      0.086587
4
Coordinates from ORCA-job MnOOH_Solv_COMPLETE E -1298.309810655377
  Mn      1.837795      0.542524     -0.015516
  O       0.918521      1.767326      0.049651
  O       3.306587     -0.174460     -0.134507
  H       4.365818     -0.334868      0.100372
4
Coordinates from ORCA-job MnOOH_Solv_COMPLETE E -1298.325708905726
  Mn      1.770286      0.432824     -0.005169
  O       1.049971      1.794991      0.036442
  O       3.311847     -0.180541     -0.106724
  H       4.296617     -0.246752      0.075451
4
Coordinates from ORCA-job MnOOH_Solv_COMPLETE E -1298.330029092450
  Mn      1.688590      0.315205      0.004040
  O       1.272778      1.788010      0.026849
  O       3.256837     -0.192156     -0.092687
  H       4.210516     -0.110537      0.061798
4
Coordinates from ORCA-job MnOOH_Solv_COMPLETE E -1298.331125975947
  Mn      1.690692      0.302051      0.006843
  O       1.370169      1.795363      0.024604
  O       3.226158     -0.301782     -0.088069
  H       4.141703      0.004890      0.056623
4
Coordinates from ORCA-job MnOOH_Solv_COMPLETE E -1298.328348742862
  Mn      1.645688      0.265397      0.008598
  O       1.426094      1.797800      0.021543
  O       3.196917     -0.302553     -0.088046
  H       4.160021      0.039879      0.057905
4
Coordinates from ORCA-job MnOOH_Solv_COMPLETE E -1298.331190432404
  Mn      1.687117      0.299147      0.007483
  O       1.371718      1.799481      0.026604
  O       3.226152     -0.305941     -0.095845
  H       4.143733      0.007835      0.061758
4
Coordinates from ORCA-job MnOOH_Solv_COMPLETE E -1298.330315280517
  Mn      1.660100      0.270078      0.011700
  O       1.449165      1.776460      0.022334
  O       3.210133     -0.285594     -0.092439
  H       4.109323      0.039577      0.058406
4
Coordinates from ORCA-job MnOOH_Solv_COMPLETE E -1298.331137516365
  Mn      1.696047      0.306264      0.008550
  O       1.361669      1.799485      0.029410
  O       3.230521     -0.308129     -0.105522
  H       4.140485      0.002902      0.067563
4
Coordinates from ORCA-job MnOOH_Solv_COMPLETE E -1298.327259242198
  Mn      1.644947      0.271698     -0.000848
  O       1.388143      1.816942      0.034528
  O       3.216631     -0.308870     -0.108402
  H       4.179000      0.020752      0.074722
4
Coordinates from ORCA-job MnOOH_Solv_COMPLETE E -1298.330601745785
  Mn      1.655029      0.269593      0.012644
  O       1.431678      1.783683      0.024884
  O       3.213736     -0.281334     -0.103084
  H       4.128278      0.028580      0.065556
4
Coordinates from ORCA-job MnOOH_Solv_COMPLETE E -1298.328753116526
  Mn      1.755427      0.362352      0.000072
  O       1.265390      1.812106      0.041751
  O       3.252028     -0.339973     -0.122216
  H       4.155876     -0.033962      0.080394
4
Coordinates from ORCA-job MnOOH_Solv_COMPLETE E -1298.331166425844
  Mn      1.693984      0.306014      0.007597
  O       1.357144      1.800868      0.032495
  O       3.232353     -0.305954     -0.114748
  H       4.145240     -0.000406      0.074656
4
Coordinates from ORCA-job MnOOH_Solv_COMPLETE E -1298.331211575983
  Mn      1.681982      0.291476      0.010788
  O       1.391278      1.795032      0.031967
  O       3.225139     -0.303192     -0.120215
  H       4.130322      0.017206      0.077460
4
Coordinates from ORCA-job MnOOH_Solv_COMPLETE E -1298.331225567906
  Mn      1.685738      0.295112      0.010536
  O       1.382269      1.796321      0.033967
  O       3.227584     -0.302909     -0.125389
  H       4.133131      0.011998      0.080886
4
Coordinates from ORCA-job MnOOH_Solv_COMPLETE E -1298.331230694785
  Mn      1.686968      0.295178      0.011221
  O       1.382731      1.796167      0.036324
  O       3.228319     -0.303116     -0.133601
  H       4.130703      0.012294      0.086057
