4
Coordinates from ORCA-job actividad2_Q2002B E -56.209570858703
  N      -6.438208      2.342357      0.038098
  H      -5.420880      2.347933     -0.019989
  H      -6.749806      1.582732     -0.565422
  H      -6.749809      3.202887     -0.409956
4
Coordinates from ORCA-job actividad2_Q2002B E -56.210306282488
  N      -6.435423      2.343114      0.030207
  H      -5.436474      2.348176     -0.022525
  H      -6.743402      1.595600     -0.558926
  H      -6.743404      3.189019     -0.406025
4
Coordinates from ORCA-job actividad2_Q2002B E -56.210370925543
  N      -6.433716      2.343581      0.025341
  H      -5.433168      2.347890     -0.019545
  H      -6.745908      1.591922     -0.558327
  H      -6.745911      3.192516     -0.404738
4
Coordinates from ORCA-job actividad2_Q2002B E -56.210396689572
  N      -6.431429      2.344200      0.018891
  H      -5.430853      2.347580     -0.016314
  H      -6.748209      1.588952     -0.556988
  H      -6.748212      3.195177     -0.402859
4
Coordinates from ORCA-job actividad2_Q2002B E -56.210396918162
  N      -6.431196      2.344257      0.018301
  H      -5.430779      2.347555     -0.016058
  H      -6.748362      1.588845     -0.556830
  H      -6.748365      3.195251     -0.402683
