3
Coordinates from ORCA-job ./SO2_VWN/input E -546.279590305394
  S      -1.396470      0.534622     -0.039248
  O       0.172561      0.512374     -0.082159
  O      -1.965046      1.208104      1.259728
3
Coordinates from ORCA-job ./SO2_VWN/input E -546.301169507564
  S      -1.372481      0.550237     -0.009131
  O       0.128617      0.514965     -0.077162
  O      -1.945092      1.189898      1.224613
3
Coordinates from ORCA-job ./SO2_VWN/input E -546.306915273021
  S      -1.338453      0.572386      0.033589
  O       0.068667      0.517864     -0.071569
  O      -1.919170      1.164849      1.176301
3
Coordinates from ORCA-job ./SO2_VWN/input E -546.309012782518
  S      -1.348126      0.566092      0.021449
  O       0.094935      0.514037     -0.078952
  O      -1.935765      1.174971      1.195823
3
Coordinates from ORCA-job ./SO2_VWN/input E -546.309090480559
  S      -1.345736      0.567649      0.024453
  O       0.091888      0.513861     -0.079291
  O      -1.935109      1.173590      1.193158
3
Coordinates from ORCA-job ./SO2_VWN/input E -546.309091533814
  S      -1.345284      0.567944      0.025021
  O       0.091711      0.513698     -0.079606
  O      -1.935383      1.173458      1.192905
3
Coordinates from ORCA-job ./SO2_VWN/input E -546.309091536512
  S      -1.345233      0.567976      0.025084
  O       0.091767      0.513655     -0.079689
  O      -1.935491      1.173469      1.192925
