4
Coordinates from ORCA-job CoOOH_Solv_COMPLETE E -1529.842570306778
  Co     -1.671960      2.457770     -0.000000
  O      -3.066310      1.598560     -0.000001
  O      -0.110402      3.419370      0.000000
  H       0.603334      2.732930      0.000000
4
Coordinates from ORCA-job CoOOH_Solv_COMPLETE E -1529.848459387954
  Co     -1.674196      2.470104      0.000000
  O      -3.045449      1.603860     -0.000001
  O      -0.127286      3.401332     -0.000000
  H       0.601592      2.733333     -0.000000
4
Coordinates from ORCA-job CoOOH_Solv_COMPLETE E -1529.865456502858
  Co     -1.683990      2.523952      0.000000
  O      -2.954764      1.624698     -0.000001
  O      -0.195677      3.328606     -0.000000
  H       0.589093      2.731374     -0.000000
4
Coordinates from ORCA-job CoOOH_Solv_COMPLETE E -1529.869321836136
  Co     -1.702225      2.570957      0.000000
  O      -2.893316      1.636677     -0.000001
  O      -0.244692      3.257495     -0.000000
  H       0.594895      2.743501     -0.000000
4
Coordinates from ORCA-job CoOOH_Solv_COMPLETE E -1529.872104226012
  Co     -1.718101      2.578641      0.000000
  O      -2.907364      1.628486     -0.000001
  O      -0.237789      3.244494     -0.000000
  H       0.617917      2.757009     -0.000000
4
Coordinates from ORCA-job CoOOH_Solv_COMPLETE E -1529.878132276713
  Co     -1.778743      2.632529      0.000000
  O      -2.924349      1.604411     -0.000001
  O      -0.231526      3.157956     -0.000000
  H       0.689281      2.813734     -0.000000
4
Coordinates from ORCA-job CoOOH_Solv_COMPLETE E -1529.878472286683
  Co     -1.792897      2.651105      0.000000
  O      -2.921728      1.600720     -0.000001
  O      -0.234456      3.124405      0.000000
  H       0.703744      2.832400     -0.000000
4
Coordinates from ORCA-job CoOOH_Solv_COMPLETE E -1529.878496583347
  Co     -1.790707      2.648358      0.000000
  O      -2.924223      1.601491     -0.000001
  O      -0.234217      3.125813      0.000000
  H       0.703809      2.832969     -0.000000
4
Coordinates from ORCA-job CoOOH_Solv_COMPLETE E -1529.878552726393
  Co     -1.784015      2.639412      0.000000
  O      -2.934882      1.604889     -0.000001
  O      -0.233856      3.123672      0.000000
  H       0.707414      2.840658     -0.000000
4
Coordinates from ORCA-job CoOOH_Solv_COMPLETE E -1529.878572606186
  Co     -1.781789      2.634876      0.000000
  O      -2.941150      1.607188     -0.000001
  O      -0.233572      3.118940      0.000000
  H       0.711173      2.847626     -0.000000
4
Coordinates from ORCA-job CoOOH_Solv_COMPLETE E -1529.878612628446
  Co     -1.777864      2.623528      0.000000
  O      -2.955701      1.613355     -0.000001
  O      -0.232322      3.106464      0.000000
  H       0.720549      2.865283     -0.000000
4
Coordinates from ORCA-job CoOOH_Solv_COMPLETE E -1529.878669246192
  Co     -1.772339      2.603835      0.000000
  O      -2.977957      1.624422     -0.000001
  O      -0.229351      3.086808      0.000000
  H       0.734310      2.893565     -0.000000
4
Coordinates from ORCA-job CoOOH_Solv_COMPLETE E -1529.878735205218
  Co     -1.765378      2.575160     -0.000000
  O      -3.006029      1.641158     -0.000001
  O      -0.224030      3.060982      0.000000
  H       0.750099      2.931330     -0.000000
4
Coordinates from ORCA-job CoOOH_Solv_COMPLETE E -1529.878769358174
  Co     -1.762909      2.560037     -0.000000
  O      -3.018122      1.650060     -0.000001
  O      -0.220785      3.050163      0.000000
  H       0.756478      2.948370     -0.000000
4
Coordinates from ORCA-job CoOOH_Solv_COMPLETE E -1529.878775884906
  Co     -1.763245      2.557787     -0.000000
  O      -3.018632      1.651180     -0.000001
  O      -0.220297      3.050775      0.000000
  H       0.756837      2.948888     -0.000000
4
Coordinates from ORCA-job CoOOH_Solv_COMPLETE E -1529.878776059700
  Co     -1.763572      2.558844     -0.000000
  O      -3.017429      1.650483     -0.000001
  O      -0.220561      3.052239      0.000000
  H       0.756223      2.947064     -0.000000
