3
Coordinates from ORCA-job inputAdvance_COMPLETE E -75.755101971992
  H       0.000000      0.000000      0.000000
  O       1.000000      0.000000      0.000000
  H       2.000000      0.000000      0.000000
3
Coordinates from ORCA-job inputAdvance_COMPLETE E -75.759851076645
  H       0.054879      0.000000     -0.000000
  O       1.000000     -0.000000      0.000000
  H       1.945121      0.000000     -0.000000
3
Coordinates from ORCA-job inputAdvance_COMPLETE E -75.759894209858
  H       0.049465     -0.000000      0.000000
  O       1.000000      0.000000     -0.000000
  H       1.950535     -0.000000      0.000000
3
Coordinates from ORCA-job inputAdvance_COMPLETE E -75.759895745889
  H       0.050303      0.000000     -0.000000
  O       1.000000     -0.000000      0.000000
  H       1.949697      0.000000     -0.000000
