3
Coordinates from ORCA-job input E -546.110630009341
  S      -1.396470      0.534622     -0.039248
  O       0.172561      0.512374     -0.082159
  O      -1.965046      1.208104      1.259728
3
Coordinates from ORCA-job input E -546.122297212167
  S      -1.441609      0.504795     -0.096777
  O       0.143762      0.543902     -0.021349
  O      -1.891109      1.206403      1.256446
3
Coordinates from ORCA-job input E -546.165623681585
  S      -1.521130      0.459554     -0.184034
  O       0.073997      0.604027      0.094617
  O      -1.741823      1.191518      1.227737
3
Coordinates from ORCA-job input E -546.166062595510
  S      -1.588964      0.417375     -0.265388
  O      -0.027363      0.669292      0.220497
  O      -1.572629      1.168432      1.183211
3
Coordinates from ORCA-job input E -546.173564720760
  S      -1.557157      0.436467     -0.228563
  O       0.041864      0.631673      0.147939
  O      -1.673664      1.186959      1.218945
3
Coordinates from ORCA-job input E -546.174008109785
  S      -1.564037      0.431879     -0.237413
  O       0.037707      0.636340      0.156941
  O      -1.662626      1.186880      1.218793
3
Coordinates from ORCA-job input E -546.174150465746
  S      -1.569502      0.428086     -0.244728
  O       0.037393      0.639088      0.162241
  O      -1.656847      1.187925      1.220807
3
Coordinates from ORCA-job input E -546.174167227602
  S      -1.570234      0.427487     -0.245885
  O       0.039339      0.638817      0.161718
  O      -1.658061      1.188796      1.222487
3
Coordinates from ORCA-job input E -546.174170930873
  S      -1.570255      0.427398     -0.246056
  O       0.040947      0.638310      0.160741
  O      -1.659648      1.189391      1.223636
3
Coordinates from ORCA-job input E -546.174170950383
  S      -1.570191      0.427437     -0.245981
  O       0.041052      0.638246      0.160616
  O      -1.659817      1.189417      1.223686
