4
Coordinates from ORCA-job .\FeOOH_solv_input_ad_comp E -1410.917709419106
  Fe     -1.671960      2.457770     -0.000000
  O      -3.066310      1.598560     -0.000001
  O      -0.110402      3.419370      0.000000
  H       0.603334      2.732930      0.000000
4
Coordinates from ORCA-job .\FeOOH_solv_input_ad_comp E -1410.921041616590
  Fe     -1.672668      2.463267      0.000000
  O      -3.052942      1.604631     -0.000001
  O      -0.123599      3.404297     -0.000000
  H       0.603871      2.736435     -0.000000
4
Coordinates from ORCA-job .\FeOOH_solv_input_ad_comp E -1410.932154665958
  Fe     -1.678653      2.495000      0.000000
  O      -2.982474      1.635085     -0.000001
  O      -0.194016      3.323944     -0.000000
  H       0.609805      2.754600     -0.000000
4
Coordinates from ORCA-job .\FeOOH_solv_input_ad_comp E -1410.933381979692
  Fe     -1.690459      2.505572      0.000000
  O      -2.972846      1.640033     -0.000001
  O      -0.208436      3.291541     -0.000000
  H       0.626402      2.771484     -0.000000
4
Coordinates from ORCA-job .\FeOOH_solv_input_ad_comp E -1410.936374792867
  Fe     -1.726266      2.529499      0.000000
  O      -2.971941      1.640999     -0.000001
  O      -0.221437      3.218894     -0.000000
  H       0.674306      2.819238     -0.000000
4
Coordinates from ORCA-job .\FeOOH_solv_input_ad_comp E -1410.941330817461
  Fe     -1.774493      2.568212      0.000001
  O      -2.977337      1.634663     -0.000001
  O      -0.222168      3.118563     -0.000000
  H       0.728661      2.887192     -0.000000
4
Coordinates from ORCA-job .\FeOOH_solv_input_ad_comp E -1410.943744591199
  Fe     -1.815757      2.622387      0.000002
  O      -2.972217      1.621235     -0.000002
  O      -0.217069      3.019942     -0.000001
  H       0.759705      2.945066      0.000000
4
Coordinates from ORCA-job .\FeOOH_solv_input_ad_comp E -1410.944183265668
  Fe     -1.815864      2.623654      0.000002
  O      -2.979809      1.610745     -0.000002
  O      -0.211787      3.045954     -0.000001
  H       0.762122      2.928278      0.000000
4
Coordinates from ORCA-job .\FeOOH_solv_input_ad_comp E -1410.944520832586
  Fe     -1.814741      2.635110      0.000002
  O      -2.971779      1.603598     -0.000002
  O      -0.214783      3.054664     -0.000002
  H       0.755965      2.915258      0.000000
4
Coordinates from ORCA-job .\FeOOH_solv_input_ad_comp E -1410.945013566567
  Fe     -1.813092      2.670698      0.000002
  O      -2.938443      1.586786     -0.000002
  O      -0.228082      3.072405     -0.000001
  H       0.734279      2.878740      0.000000
4
Coordinates from ORCA-job .\FeOOH_solv_input_ad_comp E -1410.945155793470
  Fe     -1.815663      2.684674      0.000002
  O      -2.922955      1.580768     -0.000002
  O      -0.232378      3.079480     -0.000001
  H       0.725657      2.863707      0.000000
4
Coordinates from ORCA-job .\FeOOH_solv_input_ad_comp E -1410.945993118067
  Fe     -1.845351      2.807849      0.000002
  O      -2.758850      1.536325     -0.000002
  O      -0.264983      3.143553     -0.000001
  H       0.623846      2.720902     -0.000000
4
Coordinates from ORCA-job .\FeOOH_solv_input_ad_comp E -1410.946481107901
  Fe     -1.850351      2.805520      0.000002
  O      -2.757964      1.536757     -0.000002
  O      -0.260854      3.148089     -0.000001
  H       0.623832      2.718264     -0.000000
4
Coordinates from ORCA-job .\FeOOH_solv_input_ad_comp E -1410.947012266217
  Fe     -1.873027      2.843712      0.000002
  O      -2.681231      1.527125     -0.000002
  O      -0.259855      3.182323     -0.000001
  H       0.568774      2.655469     -0.000000
4
Coordinates from ORCA-job .\FeOOH_solv_input_ad_comp E -1410.947027538681
  Fe     -1.869274      2.831380      0.000002
  O      -2.701266      1.528795     -0.000002
  O      -0.255583      3.181264     -0.000001
  H       0.580785      2.667191     -0.000000
4
Coordinates from ORCA-job .\FeOOH_solv_input_ad_comp E -1410.947028884806
  Fe     -1.870365      2.834415      0.000002
  O      -2.697099      1.528069     -0.000002
  O      -0.256308      3.181555     -0.000001
  H       0.578434      2.664591     -0.000000
