2
Coordinates from ORCA-job ./PH2N_PBE/input E -341.526477703406
  P      -1.396470      0.534622     -0.039248
  H       0.172561      0.512374     -0.082159
2
Coordinates from ORCA-job ./PH2N_PBE/input E -341.527572561722
  P      -1.375072      0.534318     -0.039833
  H       0.151162      0.512677     -0.081574
2
Coordinates from ORCA-job ./PH2N_PBE/input E -341.527925832553
  P      -1.350370      0.533968     -0.040509
  H       0.126460      0.513027     -0.080898
2
Coordinates from ORCA-job ./PH2N_PBE/input E -341.527945106148
  P      -1.356072      0.534049     -0.040353
  H       0.132162      0.512947     -0.081054
2
Coordinates from ORCA-job ./PH2N_PBE/input E -341.527946071686
  P      -1.355513      0.534041     -0.040368
  H       0.131603      0.512954     -0.081039
2
Coordinates from ORCA-job ./PH2N_PBE/input E -341.527946094445
  P      -1.355500      0.534041     -0.040369
  H       0.131590      0.512955     -0.081039
