2
Coordinates from ORCA-job inputAdvance_COMPLETE E -75.104116877055
  O       0.000000      0.000000      0.000000
  H       1.000000      0.000000      0.000000
2
Coordinates from ORCA-job inputAdvance_COMPLETE E -75.104163247417
  O       0.003769      0.000000      0.000000
  H       0.996231      0.000000      0.000000
2
Coordinates from ORCA-job inputAdvance_COMPLETE E -75.104163251478
  O       0.003805      0.000000      0.000000
  H       0.996195      0.000000      0.000000
