3
Coordinates from ORCA-job input E -546.339115143072
  S      -1.396470      0.534622     -0.039248
  O       0.172561      0.512374     -0.082159
  O      -1.965046      1.208104      1.259728
3
Coordinates from ORCA-job input E -546.342055057484
  S      -1.388530      0.539791     -0.029279
  O       0.154573      0.514352     -0.078344
  O      -1.954999      1.200957      1.245943
3
Coordinates from ORCA-job input E -546.343171364823
  S      -1.379447      0.545701     -0.017878
  O       0.131023      0.517583     -0.072113
  O      -1.940532      1.191815      1.228311
3
Coordinates from ORCA-job input E -546.343208212673
  S      -1.381065      0.544648     -0.019911
  O       0.134664      0.517188     -0.072875
  O      -1.942555      1.193264      1.231106
3
Coordinates from ORCA-job input E -546.343208572526
  S      -1.381019      0.544676     -0.019856
  O       0.134288      0.517288     -0.072680
  O      -1.942224      1.193135      1.230857
3
Coordinates from ORCA-job input E -546.343208489026
  S      -1.381050      0.544655     -0.019896
  O       0.134241      0.517319     -0.072622
  O      -1.942147      1.193126      1.230839
