13
Coordinates from ORCA-job CoMn_COMPLETE E -4506.824439529717
  O       0.216214     -0.006219      1.965016
  O       1.457860      1.465908      0.170578
  O       1.461175     -1.657734      0.336658
  O      -1.619033     -1.285334     -0.190267
  O      -1.795432      1.335463     -0.018287
  O      -0.178454     -0.282819     -2.151821
  O       2.928865      0.033011      2.655076
  Co      1.916410     -0.048912      1.128433
  Mn     -0.107478     -0.107705      0.062356
  O      -3.398012     -0.438743     -2.179417
  Co     -1.827952      0.136125     -1.426456
  H      -3.665118      0.296023     -2.786998
  H       3.863775     -0.035801      2.336404
13
Coordinates from ORCA-job CoMn_COMPLETE E -4506.870089743461
  O       0.215934     -0.015099      1.936618
  O       1.444713      1.419864      0.171715
  O       1.443983     -1.611005      0.326649
  O      -1.601699     -1.260556     -0.184227
  O      -1.759566      1.308532     -0.038650
  O      -0.194971     -0.263327     -2.110044
  O       2.916003      0.028612      2.639976
  Co      1.906096     -0.049258      1.135135
  Mn     -0.109094     -0.108339      0.064881
  O      -3.382749     -0.433449     -2.166516
  Co     -1.828417      0.127167     -1.418142
  H      -3.649985      0.289464     -2.785403
  H       3.852574     -0.029342      2.329283
13
Coordinates from ORCA-job CoMn_COMPLETE E -4506.916035815600
  O       0.216484     -0.020216      1.899507
  O       1.429008      1.374650      0.184575
  O       1.424469     -1.563236      0.331051
  O      -1.576531     -1.232118     -0.182096
  O      -1.732130      1.269864     -0.057556
  O      -0.218311     -0.254286     -2.066902
  O       2.896276      0.028445      2.613522
  Co      1.892732     -0.048624      1.137473
  Mn     -0.110434     -0.109163      0.066937
  O      -3.353760     -0.425479     -2.152381
  Co     -1.823515      0.119109     -1.408581
  H      -3.626915      0.291209     -2.775480
  H       3.835448     -0.026893      2.311208
13
Coordinates from ORCA-job CoMn_COMPLETE E -4506.953428479015
  O       0.214577     -0.025049      1.860725
  O       1.414882      1.330693      0.198403
  O       1.405725     -1.516888      0.336632
  O      -1.548814     -1.203974     -0.178413
  O      -1.706580      1.231623     -0.075888
  O      -0.242470     -0.245884     -2.025720
  O       2.872542      0.028105      2.583451
  Co      1.876319     -0.048177      1.137893
  Mn     -0.111866     -0.110055      0.069103
  O      -3.320357     -0.416859     -2.135319
  Co     -1.815867      0.110986     -1.396672
  H      -3.599769      0.293249     -2.762902
  H       3.814500     -0.024507      2.289980
13
Coordinates from ORCA-job CoMn_COMPLETE E -4506.979393037600
  O       0.208842     -0.030683      1.822835
  O       1.399819      1.287406      0.209143
  O       1.384671     -1.470616      0.337535
  O      -1.520259     -1.177770     -0.171192
  O      -1.676955      1.195590     -0.092677
  O      -0.263526     -0.236063     -1.984191
  O       2.849161      0.027357      2.553137
  Co      1.857298     -0.047805      1.138017
  Mn     -0.113406     -0.110947      0.071494
  O      -3.287123     -0.407827     -2.118166
  Co     -1.806799      0.101880     -1.382757
  H      -3.573209      0.294110     -2.751709
  H       3.794305     -0.021370      2.269806
13
Coordinates from ORCA-job CoMn_COMPLETE E -4506.993354465914
  O       0.197736     -0.038837      1.791824
  O       1.383655      1.246355      0.211614
  O       1.360602     -1.425156      0.325911
  O      -1.495306     -1.157093     -0.157590
  O      -1.638266      1.167212     -0.107303
  O      -0.276775     -0.221851     -1.943149
  O       2.832008      0.025088      2.527993
  Co      1.836601     -0.047680      1.140760
  Mn     -0.115234     -0.111816      0.074513
  O      -3.261325     -0.398905     -2.104112
  Co     -1.799044      0.090384     -1.367198
  H      -3.552424      0.291379     -2.747780
  H       3.780593     -0.015817      2.255793
13
Coordinates from ORCA-job CoMn_COMPLETE E -4507.000370165611
  O       0.183354     -0.050485      1.781029
  O       1.373614      1.217136      0.201115
  O       1.342794     -1.390883      0.295766
  O      -1.485252     -1.148974     -0.137468
  O      -1.596063      1.160683     -0.119649
  O      -0.277863     -0.201015     -1.914320
  O       2.827998      0.017926      2.518858
  Co      1.819584     -0.048888      1.149130
  Mn     -0.117407     -0.112432      0.078434
  O      -3.255997     -0.392587     -2.095294
  Co     -1.798159      0.077645     -1.352749
  H      -3.542795      0.280733     -2.758034
  H       3.779012     -0.005597      2.254458
13
Coordinates from ORCA-job CoMn_COMPLETE E -4507.005481612024
  O       0.170575     -0.062758      1.785570
  O       1.371034      1.199398      0.187512
  O       1.338632     -1.371766      0.262946
  O      -1.487772     -1.151097     -0.118445
  O      -1.562906      1.171847     -0.129358
  O      -0.276038     -0.180969     -1.899868
  O       2.832574      0.008209      2.520739
  Co      1.808504     -0.051407      1.161028
  Mn     -0.121203     -0.114806      0.083890
  O      -3.264968     -0.387614     -2.090061
  Co     -1.803947      0.065818     -1.341287
  H      -3.536047      0.269012     -2.777747
  H       3.784382      0.009397      2.256356
13
Coordinates from ORCA-job CoMn_COMPLETE E -4507.010153056967
  O       0.154341     -0.072339      1.799471
  O       1.360336      1.189229      0.173123
  O       1.330438     -1.351791      0.226286
  O      -1.494713     -1.162946     -0.099062
  O      -1.523965      1.183387     -0.137401
  O      -0.265788     -0.169423     -1.885294
  O       2.846685      0.004832      2.523347
  Co      1.795998     -0.051195      1.176672
  Mn     -0.125152     -0.117683      0.089227
  O      -3.275274     -0.381610     -2.098034
  Co     -1.809908      0.048807     -1.331584
  H      -3.536211      0.265581     -2.793679
  H       3.796033      0.018415      2.258202
13
Coordinates from ORCA-job CoMn_COMPLETE E -4507.013354480933
  O       0.136884     -0.078266      1.813872
  O       1.341457      1.176720      0.163909
  O       1.313513     -1.325836      0.193113
  O      -1.499397     -1.177729     -0.080582
  O      -1.480894      1.184302     -0.142058
  O      -0.257013     -0.164107     -1.862773
  O       2.862187      0.002874      2.517651
  Co      1.779090     -0.050673      1.193637
  Mn     -0.129955     -0.121381      0.096000
  O      -3.279704     -0.369888     -2.107691
  Co     -1.814661      0.028490     -1.318229
  H      -3.528760      0.268897     -2.815383
  H       3.810073      0.029861      2.249809
13
Coordinates from ORCA-job CoMn_COMPLETE E -4507.015252628528
  O       0.119655     -0.079061      1.830504
  O       1.321673      1.165864      0.158727
  O       1.297572     -1.299513      0.163675
  O      -1.503554     -1.196744     -0.065609
  O      -1.440355      1.181858     -0.147188
  O      -0.250301     -0.163550     -1.840781
  O       2.877194      0.001242      2.508677
  Co      1.760433     -0.049937      1.212334
  Mn     -0.134949     -0.125345      0.102920
  O      -3.281457     -0.355678     -2.117706
  Co     -1.819771      0.005830     -1.303718
  H      -3.515813      0.277215     -2.835196
  H       3.822492      0.041082      2.234638
13
Coordinates from ORCA-job CoMn_COMPLETE E -4507.016205369318
  O       0.104565     -0.072680      1.844809
  O       1.307044      1.157606      0.157045
  O       1.287996     -1.275208      0.140182
  O      -1.503778     -1.216950     -0.056949
  O      -1.407697      1.178810     -0.155056
  O      -0.247676     -0.164015     -1.824279
  O       2.888014     -0.000822      2.500206
  Co      1.742708     -0.048801      1.231086
  Mn     -0.138891     -0.128190      0.108229
  O      -3.282146     -0.343180     -2.124027
  Co     -1.825452     -0.016550     -1.289912
  H      -3.502018      0.286593     -2.848418
  H       3.830152      0.046652      2.218357
13
Coordinates from ORCA-job CoMn_COMPLETE E -4507.016617862798
  O       0.094518     -0.060503      1.852254
  O       1.300912      1.153485      0.157882
  O       1.285121     -1.259161      0.127866
  O      -1.498919     -1.233281     -0.056496
  O      -1.389469      1.175831     -0.162758
  O      -0.248454     -0.164226     -1.816897
  O       2.893896     -0.002994      2.495793
  Co      1.730357     -0.047547      1.246002
  Mn     -0.140459     -0.128994      0.110079
  O      -3.283358     -0.335769     -2.126762
  Co     -1.830651     -0.033732     -1.280576
  H      -3.494523      0.294539     -2.852818
  H       3.833850      0.045616      2.207706
13
Coordinates from ORCA-job CoMn_COMPLETE E -4507.016879333275
  O       0.088836     -0.045931      1.854212
  O       1.300925      1.152276      0.160579
  O       1.285670     -1.251768      0.125594
  O      -1.491142     -1.245185     -0.061431
  O      -1.383689      1.172513     -0.167466
  O      -0.251611     -0.164354     -1.815941
  O       2.898174     -0.006295      2.494486
  Co      1.723008     -0.046864      1.257508
  Mn     -0.140203     -0.128296      0.109355
  O      -3.286434     -0.330753     -2.127579
  Co     -1.835773     -0.045808     -1.274898
  H      -3.491624      0.300377     -2.854774
  H       3.836683      0.043352      2.201631
13
Coordinates from ORCA-job CoMn_COMPLETE E -4507.017155443274
  O       0.085283     -0.027215      1.852036
  O       1.306093      1.152561      0.165220
  O       1.288905     -1.250952      0.132756
  O      -1.479725     -1.255618     -0.071237
  O      -1.388319      1.167518     -0.169980
  O      -0.257415     -0.164416     -1.819692
  O       2.903512     -0.011767      2.495132
  Co      1.718120     -0.046689      1.269340
  Mn     -0.138339     -0.126310      0.106286
  O      -3.292181     -0.325452     -2.128100
  Co     -1.842272     -0.056776     -1.271106
  H      -3.491101      0.306440     -2.856400
  H       3.840259      0.041937      2.197021
13
Coordinates from ORCA-job CoMn_COMPLETE E -4507.017346866274
  O       0.084378     -0.012544      1.847279
  O       1.314304      1.152533      0.168302
  O       1.293127     -1.256998      0.147969
  O      -1.469676     -1.260894     -0.080864
  O      -1.402459      1.161718     -0.168860
  O      -0.263089     -0.162463     -1.825437
  O       2.908930     -0.016769      2.496911
  Co      1.717269     -0.046767      1.277429
  Mn     -0.135844     -0.124172      0.102515
  O      -3.298172     -0.321342     -2.129281
  Co     -1.847626     -0.063104     -1.270709
  H      -3.492053      0.311353     -2.858091
  H       3.843730      0.042713      2.194110
13
Coordinates from ORCA-job CoMn_COMPLETE E -4507.017469869889
  O       0.083728     -0.004250      1.843451
  O       1.321921      1.150076      0.166871
  O       1.296189     -1.265012      0.165012
  O      -1.463318     -1.263188     -0.086754
  O      -1.418794      1.155775     -0.165682
  O      -0.266120     -0.156982     -1.829215
  O       2.913474     -0.018474      2.498335
  Co      1.718481     -0.046244      1.281546
  Mn     -0.134023     -0.123044      0.099992
  O      -3.301701     -0.319298     -2.132100
  Co     -1.850446     -0.065964     -1.272633
  H      -3.493084      0.316098     -2.858883
  H       3.846512      0.043769      2.191335
13
Coordinates from ORCA-job CoMn_COMPLETE E -4507.017619377502
  O       0.080585      0.004775      1.840216
  O       1.331322      1.143158      0.159913
  O       1.298886     -1.275484      0.189003
  O      -1.455941     -1.267349     -0.092045
  O      -1.441112      1.146616     -0.160309
  O      -0.268003     -0.144922     -1.831280
  O       2.919152     -0.016542      2.499292
  Co      1.720110     -0.044163      1.285539
  Mn     -0.132287     -0.122448      0.097994
  O      -3.303513     -0.318334     -2.138202
  Co     -1.852272     -0.069297     -1.276301
  H      -3.494074      0.324503     -2.858315
  H       3.849967      0.042750      2.185770
13
Coordinates from ORCA-job CoMn_COMPLETE E -4507.017764645843
  O       0.073966      0.012894      1.839124
  O       1.339026      1.133006      0.149188
  O       1.299684     -1.283269      0.210308
  O      -1.448289     -1.274224     -0.094864
  O      -1.459903      1.137411     -0.155053
  O      -0.268135     -0.129880     -1.830015
  O       2.923555     -0.010531      2.499046
  Co      1.720430     -0.040540      1.288709
  Mn     -0.131182     -0.122260      0.097120
  O      -3.302154     -0.319016     -2.145559
  Co     -1.852173     -0.072999     -1.279923
  H      -3.494621      0.334605     -2.855407
  H       3.852616      0.038066      2.178602
13
Coordinates from ORCA-job CoMn_COMPLETE E -4507.017871762080
  O       0.063902      0.022343      1.839119
  O       1.344881      1.121446      0.137316
  O       1.298562     -1.286336      0.225485
  O      -1.437956     -1.284782     -0.096716
  O      -1.471843      1.129512     -0.151421
  O      -0.267222     -0.114774     -1.826647
  O       2.926023     -0.002244      2.497901
  Co      1.717900     -0.035598      1.292890
  Mn     -0.130162     -0.121241      0.096077
  O      -3.298747     -0.320683     -2.152110
  Co     -1.851192     -0.078616     -1.281864
  H      -3.495033      0.345326     -2.849597
  H       3.853707      0.028911      2.170843
13
Coordinates from ORCA-job CoMn_COMPLETE E -4507.017928833237
  O       0.057519      0.028830      1.838974
  O       1.346176      1.116413      0.130837
  O       1.296731     -1.284399      0.228072
  O      -1.429865     -1.292208     -0.098334
  O      -1.472606      1.127203     -0.151033
  O      -0.265013     -0.108048     -1.824469
  O       2.925025      0.002874      2.497253
  Co      1.714089     -0.031970      1.296259
  Mn     -0.129275     -0.119220      0.094488
  O      -3.296281     -0.322627     -2.153201
  Co     -1.850354     -0.083220     -1.281188
  H      -3.495643      0.350158     -2.843737
  H       3.852315      0.019477      2.167353
13
Coordinates from ORCA-job CoMn_COMPLETE E -4507.017992550532
  O       0.053732      0.035690      1.837026
  O       1.345751      1.115788      0.125824
  O       1.294669     -1.281205      0.225612
  O      -1.420841     -1.297359     -0.101943
  O      -1.469167      1.127932     -0.151823
  O      -0.261016     -0.103950     -1.824115
  O       2.920324      0.006388      2.497806
  Co      1.709847     -0.028399      1.298327
  Mn     -0.127510     -0.115619      0.091349
  O      -3.294447     -0.326438     -2.149355
  Co     -1.848784     -0.086619     -1.279750
  H      -3.497720      0.350565     -2.835213
  H       3.847980      0.006488      2.167529
13
Coordinates from ORCA-job CoMn_COMPLETE E -4507.018058111610
  O       0.050611      0.048085      1.830066
  O       1.350682      1.116083      0.120307
  O       1.293975     -1.282141      0.228363
  O      -1.406036     -1.301311     -0.110055
  O      -1.471279      1.128279     -0.151631
  O      -0.258498     -0.095634     -1.828330
  O       2.912766      0.007801      2.501089
  Co      1.707328     -0.024648      1.298522
  Mn     -0.123259     -0.109752      0.084783
  O      -3.294467     -0.332866     -2.141416
  Co     -1.846338     -0.087921     -1.280141
  H      -3.503685      0.347636     -2.822353
  H       3.841020     -0.010349      2.172069
13
Coordinates from ORCA-job CoMn_COMPLETE E -4507.018121228993
  O       0.052427      0.057615      1.821207
  O       1.355596      1.120414      0.113461
  O       1.293342     -1.285623      0.228565
  O      -1.394459     -1.298902     -0.119700
  O      -1.471779      1.131424     -0.150841
  O      -0.253301     -0.086913     -1.835268
  O       2.900843      0.005633      2.507078
  Co      1.707057     -0.022455      1.294148
  Mn     -0.117452     -0.103167      0.076625
  O      -3.295881     -0.342042     -2.127841
  Co     -1.841814     -0.084565     -1.281948
  H      -3.512710      0.337821     -2.807339
  H       3.830950     -0.025976      2.183128
13
Coordinates from ORCA-job CoMn_COMPLETE E -4507.018160214193
  O       0.050807      0.070145      1.810831
  O       1.367814      1.118298      0.104878
  O       1.293617     -1.292076      0.237151
  O      -1.380022     -1.298569     -0.129046
  O      -1.479381      1.130281     -0.148958
  O      -0.252298     -0.071997     -1.843195
  O       2.891442      0.002642      2.513766
  Co      1.708166     -0.020813      1.290494
  Mn     -0.110602     -0.096789      0.067249
  O      -3.297947     -0.350327     -2.117697
  Co     -1.837661     -0.081589     -1.285837
  H      -3.523723      0.331295     -2.792092
  H       3.822609     -0.037236      2.193730
13
Coordinates from ORCA-job CoMn_COMPLETE E -4507.018196916530
  O       0.054807      0.071435      1.806546
  O       1.372043      1.118830      0.097840
  O       1.293061     -1.295270      0.236818
  O      -1.379914     -1.292677     -0.133606
  O      -1.478321      1.131329     -0.148323
  O      -0.248101     -0.065020     -1.846845
  O       2.884437     -0.002499      2.518986
  Co      1.709783     -0.022394      1.285958
  Mn     -0.106265     -0.094217      0.062256
  O      -3.299626     -0.355676     -2.110412
  Co     -1.834078     -0.077438     -1.288448
  H      -3.532401      0.323977     -2.783839
  H       3.817395     -0.037116      2.204344
13
Coordinates from ORCA-job CoMn_COMPLETE E -4507.018230511495
  O       0.055691      0.074491      1.803728
  O       1.377826      1.114763      0.090541
  O       1.292754     -1.295879      0.237371
  O      -1.378169     -1.291241     -0.136950
  O      -1.477680      1.130371     -0.148742
  O      -0.245690     -0.057257     -1.848773
  O       2.880660     -0.006130      2.523534
  Co      1.710095     -0.023359      1.284635
  Mn     -0.102393     -0.091788      0.057373
  O      -3.301244     -0.359355     -2.107337
  Co     -1.831899     -0.076415     -1.290481
  H      -3.541974      0.321261     -2.776800
  H       3.814842     -0.036200      2.213175
13
Coordinates from ORCA-job CoMn_COMPLETE E -4507.018260545250
  O       0.056770      0.079807      1.801042
  O       1.384063      1.109562      0.082530
  O       1.293318     -1.293751      0.235850
  O      -1.375160     -1.291584     -0.141763
  O      -1.475531      1.129755     -0.151052
  O      -0.242946     -0.049430     -1.850663
  O       2.876665     -0.009416      2.529245
  Co      1.709763     -0.023702      1.284621
  Mn     -0.097790     -0.088203      0.051054
  O      -3.303497     -0.363739     -2.104299
  Co     -1.830190     -0.076722     -1.292384
  H      -3.555174      0.318875     -2.767794
  H       3.812528     -0.038189      2.224889
13
Coordinates from ORCA-job CoMn_COMPLETE E -4507.018275441737
  O       0.057865      0.085513      1.798428
  O       1.388053      1.107359      0.078072
  O       1.294514     -1.291878      0.234477
  O      -1.371108     -1.292466     -0.146559
  O      -1.474642      1.130215     -0.153277
  O      -0.241553     -0.044486     -1.852758
  O       2.872946     -0.010825      2.533443
  Co      1.709875     -0.023066      1.284484
  Mn     -0.094325     -0.084838      0.046061
  O      -3.305184     -0.367571     -2.100769
  Co     -1.829334     -0.076817     -1.293765
  H      -3.564521      0.316143     -2.760412
  H       3.810234     -0.044020      2.233851
13
Coordinates from ORCA-job CoMn_COMPLETE E -4507.018290102225
  O       0.060444      0.091788      1.795700
  O       1.390834      1.106411      0.074036
  O       1.296192     -1.289611      0.231997
  O      -1.367027     -1.292979     -0.152415
  O      -1.473607      1.131730     -0.156010
  O      -0.240013     -0.040027     -1.854886
  O       2.868261     -0.011681      2.537882
  Co      1.710910     -0.022071      1.283639
  Mn     -0.090688     -0.080987      0.040778
  O      -3.306930     -0.372114     -2.095941
  Co     -1.828817     -0.076197     -1.295345
  H      -3.574082      0.311770     -2.752512
  H       3.807344     -0.052770      2.244354
13
Coordinates from ORCA-job CoMn_COMPLETE E -4507.018299856320
  O       0.062746      0.095976      1.793682
  O       1.392068      1.106223      0.071252
  O       1.297052     -1.288847      0.230451
  O      -1.364289     -1.292800     -0.156469
  O      -1.473394      1.133075     -0.157297
  O      -0.239234     -0.036435     -1.856003
  O       2.864568     -0.011983      2.540639
  Co      1.712613     -0.021444      1.282213
  Mn     -0.088176     -0.078351      0.037334
  O      -3.307917     -0.375401     -2.091921
  Co     -1.828723     -0.074939     -1.296578
  H      -3.579429      0.307639     -2.747644
  H       3.804933     -0.059450      2.251617
13
Coordinates from ORCA-job CoMn_COMPLETE E -4507.018308516430
  O       0.065394      0.097998      1.792491
  O       1.392023      1.105851      0.068629
  O       1.296871     -1.288934      0.228723
  O      -1.363301     -1.291917     -0.159011
  O      -1.472927      1.134310     -0.157485
  O      -0.238510     -0.033335     -1.855828
  O       2.861616     -0.012260      2.542389
  Co      1.714911     -0.021541      1.280413
  Mn     -0.086486     -0.076680      0.035171
  O      -3.308495     -0.377605     -2.088777
  Co     -1.829150     -0.073191     -1.297424
  H      -3.582235      0.303672     -2.745277
  H       3.803109     -0.063106      2.257261
