2
Coordinates from ORCA-job ./PH2N_VWN/input E -340.421292456356
  P      -1.396470      0.534622     -0.039248
  H       0.172561      0.512374     -0.082159
2
Coordinates from ORCA-job ./PH2N_VWN/input E -340.422599915077
  P      -1.373026      0.534289     -0.039889
  H       0.149116      0.512706     -0.081518
2
Coordinates from ORCA-job ./PH2N_VWN/input E -340.422991095598
  P      -1.347159      0.533923     -0.040597
  H       0.123250      0.513073     -0.080811
2
Coordinates from ORCA-job ./PH2N_VWN/input E -340.423015146503
  P      -1.353393      0.534011     -0.040426
  H       0.129484      0.512985     -0.080981
2
Coordinates from ORCA-job ./PH2N_VWN/input E -340.423016346382
  P      -1.352771      0.534002     -0.040443
  H       0.128861      0.512993     -0.080964
2
Coordinates from ORCA-job ./PH2N_VWN/input E -340.423016369958
  P      -1.352755      0.534002     -0.040444
  H       0.128845      0.512994     -0.080964
