2
Coordinates from ORCA-job inputAdvance_COMPLETE E -75.246175746282
  O       0.000000      0.000000      0.000000
  H       1.000000      0.000000      0.000000
2
Coordinates from ORCA-job inputAdvance_COMPLETE E -75.246400421532
  O       0.008047      0.000000      0.000000
  H       0.991953      0.000000      0.000000
2
Coordinates from ORCA-job inputAdvance_COMPLETE E -75.246401246312
  O       0.008587      0.000000      0.000000
  H       0.991413      0.000000      0.000000
