4
Coordinates from ORCA-job MnOOH_COMPLETE E -1298.276580802716
  Mn     -1.671960      2.457770     -0.000000
  O      -3.066310      1.598560     -0.000001
  O      -0.110402      3.419370      0.000000
  H       0.603334      2.732930      0.000000
4
Coordinates from ORCA-job MnOOH_COMPLETE E -1298.281792137408
  Mn     -1.673530      2.464594     -0.000000
  O      -3.044600      1.606312     -0.000001
  O      -0.124111      3.404845      0.000000
  H       0.596904      2.732879     -0.000000
4
Coordinates from ORCA-job MnOOH_COMPLETE E -1298.293357914410
  Mn     -1.688740      2.499659      0.000000
  O      -2.942512      1.641288     -0.000001
  O      -0.193517      3.336311     -0.000000
  H       0.579431      2.731371     -0.000000
4
Coordinates from ORCA-job MnOOH_COMPLETE E -1298.294287461513
  Mn     -1.697978      2.502779     -0.000000
  O      -2.955754      1.634398     -0.000001
  O      -0.186847      3.331890      0.000000
  H       0.595242      2.739563     -0.000000
4
Coordinates from ORCA-job MnOOH_COMPLETE E -1298.298108422739
  Mn     -1.755242      2.536684     -0.000000
  O      -2.989362      1.609022     -0.000001
  O      -0.173966      3.273103      0.000000
  H       0.673232      2.789821     -0.000000
4
Coordinates from ORCA-job MnOOH_COMPLETE E -1298.300370879204
  Mn     -1.814574      2.585657     -0.000000
  O      -2.997110      1.591631     -0.000001
  O      -0.173626      3.179190      0.000000
  H       0.739972      2.852152     -0.000000
4
Coordinates from ORCA-job MnOOH_COMPLETE E -1298.301311845140
  Mn     -1.809193      2.584154     -0.000000
  O      -2.987106      1.599259     -0.000001
  O      -0.184670      3.171516      0.000000
  H       0.735632      2.853701     -0.000000
4
Coordinates from ORCA-job MnOOH_COMPLETE E -1298.301943499583
  Mn     -1.800389      2.581636     -0.000000
  O      -2.977617      1.611811     -0.000001
  O      -0.199665      3.148396      0.000000
  H       0.732333      2.866787     -0.000000
4
Coordinates from ORCA-job MnOOH_COMPLETE E -1298.302093846842
  Mn     -1.797206      2.577223     -0.000000
  O      -2.983803      1.614438     -0.000001
  O      -0.200263      3.142753      0.000000
  H       0.735934      2.874216     -0.000000
4
Coordinates from ORCA-job MnOOH_COMPLETE E -1298.302473184265
  Mn     -1.785707      2.554774     -0.000001
  O      -3.017462      1.627021     -0.000001
  O      -0.198045      3.111221      0.000000
  H       0.755875      2.915614     -0.000000
4
Coordinates from ORCA-job MnOOH_COMPLETE E -1298.302556638673
  Mn     -1.782476      2.544214     -0.000001
  O      -3.028622      1.632594     -0.000001
  O      -0.196086      3.103055      0.000001
  H       0.761846      2.928767     -0.000000
4
Coordinates from ORCA-job MnOOH_COMPLETE E -1298.302889858104
  Mn     -1.770184      2.492699     -0.000001
  O      -3.075499      1.663595     -0.000001
  O      -0.185319      3.056760      0.000001
  H       0.785663      2.995575     -0.000000
4
Coordinates from ORCA-job MnOOH_COMPLETE E -1298.303114765872
  Mn     -1.760679      2.447739     -0.000001
  O      -3.106450      1.694084     -0.000001
  O      -0.174950      3.015673      0.000001
  H       0.796741      3.051133     -0.000000
4
Coordinates from ORCA-job MnOOH_COMPLETE E -1298.303270001903
  Mn     -1.749068      2.397294     -0.000001
  O      -3.133694      1.732498     -0.000001
  O      -0.161276      2.963800      0.000001
  H       0.798700      3.115038     -0.000000
4
Coordinates from ORCA-job MnOOH_COMPLETE E -1298.303347269802
  Mn     -1.730204      2.333567     -0.000000
  O      -3.159904      1.784061     -0.000001
  O      -0.141401      2.901196     -0.000000
  H       0.786172      3.189806      0.000000
4
Coordinates from ORCA-job MnOOH_COMPLETE E -1298.302066128615
  Mn     -1.685771      2.199708     -0.000001
  O      -3.206180      1.907170      0.000000
  O      -0.107529      2.794130     -0.000002
  H       0.754142      3.307621      0.000001
4
Coordinates from ORCA-job MnOOH_COMPLETE E -1298.302975560658
  Mn     -1.696268      2.243457     -0.000001
  O      -3.188188      1.861266      0.000002
  O      -0.121817      2.854094     -0.000007
  H       0.760935      3.249814      0.000005
4
Coordinates from ORCA-job MnOOH_COMPLETE E -1298.301415240768
  Mn     -1.760094      2.411191      0.000018
  O      -3.126225      1.749257     -0.000053
  O      -0.142175      2.866492      0.000120
  H       0.783156      3.181690     -0.000086
4
Coordinates from ORCA-job MnOOH_COMPLETE E -1298.303364125080
  Mn     -1.720820      2.310510     -0.000011
  O      -3.171882      1.810523      0.000025
  O      -0.129014      2.867195     -0.000057
  H       0.776378      3.220403      0.000042
4
Coordinates from ORCA-job MnOOH_COMPLETE E -1298.302415613781
  Mn     -1.713359      2.310285      0.022191
  O      -3.164107      1.814163     -0.055862
  O      -0.126299      2.871749      0.123202
  H       0.758427      3.212433     -0.089532
4
Coordinates from ORCA-job MnOOH_COMPLETE E -1298.303335336937
  Mn     -1.694660      2.245286      0.005591
  O      -3.184487      1.840007     -0.012635
  O      -0.144187      2.916902      0.027480
  H       0.777996      3.206435     -0.020437
4
Coordinates from ORCA-job MnOOH_COMPLETE E -1298.305494602468
  Mn     -1.671529      2.168396     -0.009487
  O      -3.192693      1.927315      0.024078
  O      -0.116733      2.826621     -0.052974
  H       0.735616      3.286298      0.038382
4
Coordinates from ORCA-job MnOOH_COMPLETE E -1298.311057223893
  Mn     -1.627430      2.028422     -0.008452
  O      -3.156561      2.079436      0.025033
  O      -0.096504      2.726782     -0.056833
  H       0.635158      3.373990      0.040251
4
Coordinates from ORCA-job MnOOH_COMPLETE E -1298.316453968693
  Mn     -1.568873      1.878827     -0.011313
  O      -3.091305      2.225133      0.033558
  O      -0.109044      2.702818     -0.074767
  H       0.523884      3.401853      0.052520
4
Coordinates from ORCA-job MnOOH_COMPLETE E -1298.321132030103
  Mn     -1.544697      1.764132      0.000387
  O      -2.945580      2.374668      0.009909
  O      -0.145410      2.634969     -0.027861
  H       0.390350      3.434861      0.017564
4
Coordinates from ORCA-job MnOOH_COMPLETE E -1298.322135354114
  Mn     -1.536206      1.755113      0.003539
  O      -2.888492      2.454884      0.005461
  O      -0.078985      2.541856     -0.019944
  H       0.258345      3.456778      0.010943
4
Coordinates from ORCA-job MnOOH_COMPLETE E -1298.321546626385
  Mn     -1.525250      1.715998      0.011793
  O      -2.849454      2.514721     -0.011558
  O      -0.061818      2.520078      0.014457
  H       0.191183      3.457832     -0.014693
4
Coordinates from ORCA-job MnOOH_COMPLETE E -1298.322228736921
  Mn     -1.538321      1.739935      0.006879
  O      -2.878615      2.468504     -0.001983
  O      -0.077380      2.540551     -0.003947
  H       0.248977      3.459640     -0.000950
4
Coordinates from ORCA-job MnOOH_COMPLETE E -1298.321531338149
  Mn     -1.525213      1.711015     -0.000637
  O      -2.798971      2.532345      0.011214
  O      -0.082196      2.512980     -0.028802
  H       0.161042      3.452290      0.018224
4
Coordinates from ORCA-job MnOOH_COMPLETE E -1298.321562669838
  Mn     -1.539079      1.790519     -0.004674
  O      -2.925765      2.415738      0.021810
  O      -0.073629      2.551295     -0.051091
  H       0.293135      3.451078      0.033954
4
Coordinates from ORCA-job MnOOH_COMPLETE E -1298.321754284469
  Mn     -1.550794      1.744194      0.010953
  O      -2.916691      2.440771     -0.007138
  O      -0.075747      2.560972      0.002987
  H       0.297893      3.462694     -0.006803
4
Coordinates from ORCA-job MnOOH_COMPLETE E -1298.322185130182
  Mn     -1.538080      1.727142     -0.002046
  O      -2.857763      2.487348      0.017504
  O      -0.081165      2.537956     -0.045239
  H       0.231669      3.456185      0.029780
4
Coordinates from ORCA-job MnOOH_COMPLETE E -1298.322212045014
  Mn     -1.538866      1.752599     -0.002212
  O      -2.891929      2.455309      0.017263
  O      -0.081433      2.546461     -0.043909
  H       0.266890      3.454261      0.028858
4
Coordinates from ORCA-job MnOOH_COMPLETE E -1298.322258586561
  Mn     -1.536793      1.739566     -0.005489
  O      -2.870830      2.474697      0.024999
  O      -0.079031      2.540021     -0.060392
  H       0.241316      3.454346      0.040881
4
Coordinates from ORCA-job MnOOH_COMPLETE E -1298.322268658292
  Mn     -1.534043      1.733254     -0.011643
  O      -2.858406      2.482800      0.039532
  O      -0.078611      2.540252     -0.090699
  H       0.225722      3.452324      0.062809
4
Coordinates from ORCA-job MnOOH_COMPLETE E -1298.322240091499
  Mn     -1.526661      1.723834     -0.022306
  O      -2.835345      2.494165      0.066378
  O      -0.078101      2.544924     -0.145336
  H       0.194769      3.445707      0.101263
4
Coordinates from ORCA-job MnOOH_COMPLETE E -1298.322160999058
  Mn     -1.512970      1.716460     -0.036174
  O      -2.813242      2.491748      0.106500
  O      -0.081540      2.567511     -0.220951
  H       0.162413      3.432912      0.150625
4
Coordinates from ORCA-job MnOOH_COMPLETE E -1298.322224873207
  Mn     -1.523738      1.719708     -0.030548
  O      -2.831582      2.489384      0.085284
  O      -0.083790      2.560507     -0.185118
  H       0.193771      3.439031      0.130381
4
Coordinates from ORCA-job MnOOH_COMPLETE E -1298.322205714973
  Mn     -1.520158      1.718304     -0.033088
  O      -2.824517      2.490511      0.093068
  O      -0.084057      2.563378     -0.198965
  H       0.183393      3.436437      0.138984
4
Coordinates from ORCA-job MnOOH_COMPLETE E -1298.322194053281
  Mn     -1.518051      1.717465     -0.034884
  O      -2.821832      2.489128      0.098694
  O      -0.084944      2.567201     -0.208845
  H       0.179489      3.434836      0.145035
4
Coordinates from ORCA-job MnOOH_COMPLETE E -1298.322193985223
  Mn     -1.518107      1.717431     -0.034971
  O      -2.821989      2.488821      0.098761
  O      -0.085287      2.567519     -0.208905
  H       0.180045      3.434859      0.145115
4
Coordinates from ORCA-job MnOOH_COMPLETE E -1298.322191214840
  Mn     -1.517715      1.717219     -0.035525
  O      -2.821625      2.488050      0.100116
  O      -0.085973      2.568827     -0.211118
  H       0.179975      3.434534      0.146526
4
Coordinates from ORCA-job MnOOH_COMPLETE E -1298.322188875076
  Mn     -1.517297      1.717071     -0.035997
  O      -2.821134      2.487660      0.101325
  O      -0.086217      2.569687     -0.213068
  H       0.179311      3.434212      0.147740
4
Coordinates from ORCA-job MnOOH_COMPLETE E -1298.322188164638
  Mn     -1.517007      1.717078     -0.036352
  O      -2.820674      2.487908      0.102003
  O      -0.085732      2.569623     -0.213934
  H       0.178076      3.434020      0.148281
4
Coordinates from ORCA-job MnOOH_COMPLETE E -1298.322190956530
  Mn     -1.517425      1.717290     -0.036099
  O      -2.821112      2.488491      0.100883
  O      -0.085187      2.568503     -0.211807
  H       0.178386      3.434346      0.147022
4
Coordinates from ORCA-job MnOOH_COMPLETE E -1298.322200273712
  Mn     -1.518922      1.718033     -0.035797
  O      -2.822889      2.489818      0.097490
  O      -0.083920      2.565342     -0.204672
  H       0.180394      3.435438      0.142978
4
Coordinates from ORCA-job MnOOH_COMPLETE E -1298.322203083547
  Mn     -1.519364      1.718291     -0.037053
  O      -2.823606      2.489459      0.097672
  O      -0.083927      2.565169     -0.203110
  H       0.181559      3.435711      0.142490
4
Coordinates from ORCA-job MnOOH_COMPLETE E -1298.322215173984
  Mn     -1.521211      1.719910     -0.057395
  O      -2.827615      2.480990      0.111456
  O      -0.087132      2.571524     -0.202225
  H       0.190620      3.436205      0.148163
4
Coordinates from ORCA-job MnOOH_COMPLETE E -1298.322050176643
  Mn     -1.532497      1.733947     -0.188092
  O      -2.829285      2.425979      0.206899
  O      -0.114990      2.617773     -0.212688
  H       0.231433      3.430931      0.193880
4
Coordinates from ORCA-job MnOOH_COMPLETE E -1298.322222506802
  Mn     -1.520679      1.720703     -0.081256
  O      -2.828022      2.468202      0.133544
  O      -0.091279      2.582018     -0.208956
  H       0.194641      3.437706      0.156667
4
Coordinates from ORCA-job MnOOH_COMPLETE E -1298.322223006431
  Mn     -1.520677      1.721761     -0.098903
  O      -2.826748      2.461212      0.149007
  O      -0.094495      2.589565     -0.216209
  H       0.196583      3.436092      0.166104
4
Coordinates from ORCA-job MnOOH_COMPLETE E -1298.322050756770
  Mn     -1.517593      1.734706     -0.220108
  O      -2.789615      2.412269      0.266896
  O      -0.119818      2.651843     -0.288903
  H       0.181688      3.409812      0.242114
4
Coordinates from ORCA-job MnOOH_COMPLETE E -1298.322025593457
  Mn     -1.508611      1.746726     -0.259677
  O      -2.759005      2.382089      0.327146
  O      -0.132026      2.699553     -0.350435
  H       0.154304      3.380262      0.282965
4
Coordinates from ORCA-job MnOOH_COMPLETE E -1298.322137998196
  Mn     -1.506229      1.734934     -0.184236
  O      -2.794998      2.406911      0.259619
  O      -0.117116      2.669127     -0.325621
  H       0.173005      3.397658      0.250236
4
Coordinates from ORCA-job MnOOH_COMPLETE E -1298.322192553487
  Mn     -1.512024      1.724511     -0.135101
  O      -2.811725      2.438620      0.199937
  O      -0.106978      2.628507     -0.277919
  H       0.185390      3.416992      0.213082
4
Coordinates from ORCA-job MnOOH_COMPLETE E -1298.322191884121
  Mn     -1.514732      1.719294     -0.102989
  O      -2.815149      2.462302      0.162111
  O      -0.098336      2.600314     -0.245701
  H       0.182879      3.426720      0.186578
4
Coordinates from ORCA-job MnOOH_COMPLETE E -1298.322186300874
  Mn     -1.513702      1.722876     -0.136162
  O      -2.809410      2.447563      0.194123
  O      -0.103716      2.617087     -0.263864
  H       0.181490      3.421104      0.205902
4
Coordinates from ORCA-job MnOOH_COMPLETE E -1298.322190224649
  Mn     -1.513410      1.723068     -0.135123
  O      -2.809364      2.447851      0.193940
  O      -0.102788      2.616815     -0.264847
  H       0.180225      3.420896      0.206030
4
Coordinates from ORCA-job MnOOH_COMPLETE E -1298.322192454458
  Mn     -1.513332      1.722969     -0.133284
  O      -2.809189      2.449698      0.192096
  O      -0.101334      2.614637     -0.263482
  H       0.178518      3.421325      0.204669
4
Coordinates from ORCA-job MnOOH_COMPLETE E -1298.322192167019
  Mn     -1.513302      1.722934     -0.133198
  O      -2.809064      2.449937      0.191990
  O      -0.101202      2.614398     -0.263356
  H       0.178230      3.421360      0.204563
4
Coordinates from ORCA-job MnOOH_COMPLETE E -1298.322191645304
  Mn     -1.513225      1.722870     -0.133027
  O      -2.808843      2.450297      0.191849
  O      -0.101009      2.614073     -0.263266
  H       0.177739      3.421390      0.204442
4
Coordinates from ORCA-job MnOOH_COMPLETE E -1298.322191121254
  Mn     -1.513141      1.722809     -0.132864
  O      -2.808624      2.450616      0.191745
  O      -0.100838      2.613802     -0.263241
  H       0.177265      3.421403      0.204359
4
Coordinates from ORCA-job MnOOH_COMPLETE E -1298.322190587468
  Mn     -1.513049      1.722748     -0.132691
  O      -2.808400      2.450933      0.191645
  O      -0.100667      2.613540     -0.263242
  H       0.176779      3.421410      0.204287
4
Coordinates from ORCA-job MnOOH_COMPLETE E -1298.322190059368
  Mn     -1.512952      1.722685     -0.132495
  O      -2.808175      2.451256      0.191536
  O      -0.100491      2.613275     -0.263256
  H       0.176281      3.421415      0.204214
4
Coordinates from ORCA-job MnOOH_COMPLETE E -1298.322216639369
  Mn     -1.512992      1.723761     -0.133204
  O      -2.809943      2.449191      0.192443
  O      -0.100969      2.613652     -0.264715
  H       0.178566      3.422026      0.205475
4
Coordinates from ORCA-job MnOOH_COMPLETE E -1298.322264454106
  Mn     -1.512943      1.727557     -0.135614
  O      -2.815437      2.442179      0.195225
  O      -0.102786      2.617397     -0.267658
  H       0.185828      3.421498      0.208046
4
Coordinates from ORCA-job MnOOH_COMPLETE E -1298.322322099447
  Mn     -1.512771      1.734942     -0.139790
  O      -2.825298      2.429387      0.199933
  O      -0.105919      2.625125     -0.271926
  H       0.198650      3.419176      0.211782
4
Coordinates from ORCA-job MnOOH_COMPLETE E -1298.322346212542
  Mn     -1.512858      1.740542     -0.142730
  O      -2.832427      2.420136      0.202935
  O      -0.108003      2.631162     -0.273974
  H       0.207950      3.416790      0.213768
4
Coordinates from ORCA-job MnOOH_COMPLETE E -1298.322352273173
  Mn     -1.513097      1.742688     -0.143659
  O      -2.835092      2.416893      0.203705
  O      -0.108396      2.633274     -0.274093
  H       0.211247      3.415775      0.214046
4
Coordinates from ORCA-job MnOOH_COMPLETE E -1298.322355155807
  Mn     -1.513355      1.743508     -0.143720
  O      -2.836080      2.416053      0.203626
  O      -0.107992      2.633505     -0.273720
  H       0.212089      3.415565      0.213814
