3
Coordinates from ORCA-job ./PH2P_VWN/input E -341.200969696814
  P      -1.396470      0.534622     -0.039248
  H       0.172561      0.512374     -0.082159
  H      -1.965046      1.208104      1.259728
3
Coordinates from ORCA-job ./PH2P_VWN/input E -341.217148374895
  P      -1.419870      0.519478     -0.068457
  H       0.065227      0.558708      0.007208
  H      -1.834313      1.176913      1.199569
3
Coordinates from ORCA-job ./PH2P_VWN/input E -341.221985862070
  P      -1.444207      0.503797     -0.098702
  H      -0.054304      0.609454      0.105084
  H      -1.690445      1.141848      1.131938
3
Coordinates from ORCA-job ./PH2P_VWN/input E -341.222524417396
  P      -1.448670      0.500864     -0.104359
  H      -0.031477      0.604208      0.094966
  H      -1.708809      1.150028      1.147714
3
Coordinates from ORCA-job ./PH2P_VWN/input E -341.222550156350
  P      -1.451948      0.498744     -0.108448
  H      -0.035217      0.607023      0.100395
  H      -1.701791      1.149333      1.146374
3
Coordinates from ORCA-job ./PH2P_VWN/input E -341.222551045352
  P      -1.452914      0.498118     -0.109654
  H      -0.036327      0.607854      0.101999
  H      -1.699716      1.149127      1.145976
3
Coordinates from ORCA-job ./PH2P_VWN/input E -341.222550553722
  P      -1.452913      0.498119     -0.109653
  H      -0.036321      0.607852      0.101994
  H      -1.699723      1.149129      1.145980
