3
Coordinates from ORCA-job input E -340.836635879865
  P      -1.396470      0.534622     -0.039248
  H       0.172561      0.512374     -0.082159
  H      -1.965046      1.208104      1.259728
3
Coordinates from ORCA-job input E -340.851233370778
  P      -1.421333      0.518442     -0.070456
  H       0.070556      0.557710      0.005284
  H      -1.838179      1.178947      1.203492
3
Coordinates from ORCA-job input E -340.855832679461
  P      -1.448293      0.500942     -0.104208
  H      -0.046043      0.608811      0.103844
  H      -1.694620      1.145346      1.138684
3
Coordinates from ORCA-job input E -340.856263855026
  P      -1.451668      0.498791     -0.108358
  H      -0.024275      0.603367      0.093344
  H      -1.713013      1.152942      1.153334
3
Coordinates from ORCA-job input E -340.856281608592
  P      -1.454379      0.497029     -0.111754
  H      -0.027278      0.605667      0.097780
  H      -1.707300      1.152403      1.152295
3
Coordinates from ORCA-job input E -340.856282274478
  P      -1.455060      0.496584     -0.112613
  H      -0.028017      0.606240      0.098886
  H      -1.705879      1.152275      1.152048
3
Coordinates from ORCA-job input E -340.856282277109
  P      -1.455061      0.496583     -0.112615
  H      -0.028011      0.606239      0.098883
  H      -1.705884      1.152277      1.152052
